*SPEF "ieee 1481-1999"
*DESIGN "user_proj_example"
*DATE "11:11:11 Fri 11 11, 1111"
*VENDOR "OpenRCX"
*PROGRAM "Parallel Extraction"
*VERSION "1.0"
*DESIGN_FLOW "NAME_SCOPE LOCAL" "PIN_CAP NONE"
*DIVIDER /
*DELIMITER :
*BUS_DELIMITER []
*T_UNIT 1 NS
*C_UNIT 1 PF
*R_UNIT 1 OHM
*L_UNIT 1 HENRY

*NAME_MAP
*1 io_in[0]
*2 io_in[10]
*3 io_in[11]
*4 io_in[12]
*5 io_in[13]
*6 io_in[14]
*7 io_in[15]
*8 io_in[16]
*9 io_in[17]
*10 io_in[18]
*11 io_in[19]
*12 io_in[1]
*13 io_in[20]
*14 io_in[21]
*15 io_in[22]
*16 io_in[23]
*17 io_in[24]
*18 io_in[25]
*19 io_in[26]
*20 io_in[27]
*21 io_in[28]
*22 io_in[29]
*23 io_in[2]
*24 io_in[30]
*25 io_in[31]
*26 io_in[32]
*27 io_in[33]
*28 io_in[34]
*29 io_in[35]
*30 io_in[36]
*31 io_in[37]
*32 io_in[3]
*33 io_in[4]
*34 io_in[5]
*35 io_in[6]
*36 io_in[7]
*37 io_in[8]
*38 io_in[9]
*39 net5
*40 net15
*41 net16
*42 net17
*43 net18
*44 net19
*45 net20
*46 net21
*47 net22
*48 net23
*49 net24
*50 net6
*51 net25
*52 net26
*53 net27
*54 net28
*55 net29
*56 net30
*57 net31
*58 net32
*59 net33
*60 net34
*61 net7
*62 net35
*63 net36
*64 net37
*65 net38
*66 net39
*67 net40
*68 net41
*69 net42
*70 net8
*71 net9
*72 net10
*73 net11
*74 net12
*75 net13
*76 net14
*77 net43
*78 net53
*79 net54
*80 net55
*81 net56
*82 net57
*83 net58
*84 net59
*85 net60
*86 net61
*87 net62
*88 net44
*89 net63
*90 net64
*91 net65
*92 net66
*93 net67
*94 net68
*95 net69
*96 net70
*97 net71
*98 net72
*99 net45
*100 net73
*101 net74
*102 net75
*103 net76
*104 net77
*105 net78
*106 net79
*107 io_out[37]
*108 net46
*109 net47
*110 net48
*111 net49
*112 net50
*113 net51
*114 net52
*115 net80
*116 net81
*117 net82
*118 la_data_in[0]
*119 la_data_in[100]
*120 la_data_in[101]
*121 la_data_in[102]
*122 la_data_in[103]
*123 la_data_in[104]
*124 la_data_in[105]
*125 la_data_in[106]
*126 la_data_in[107]
*127 la_data_in[108]
*128 la_data_in[109]
*129 la_data_in[10]
*130 la_data_in[110]
*131 la_data_in[111]
*132 la_data_in[112]
*133 la_data_in[113]
*134 la_data_in[114]
*135 la_data_in[115]
*136 la_data_in[116]
*137 la_data_in[117]
*138 la_data_in[118]
*139 la_data_in[119]
*140 la_data_in[11]
*141 la_data_in[120]
*142 la_data_in[121]
*143 la_data_in[122]
*144 la_data_in[123]
*145 la_data_in[124]
*146 la_data_in[125]
*147 la_data_in[126]
*148 la_data_in[127]
*149 la_data_in[12]
*150 la_data_in[13]
*151 la_data_in[14]
*152 la_data_in[15]
*153 la_data_in[16]
*154 la_data_in[17]
*155 la_data_in[18]
*156 la_data_in[19]
*157 la_data_in[1]
*158 la_data_in[20]
*159 la_data_in[21]
*160 la_data_in[22]
*161 la_data_in[23]
*162 la_data_in[24]
*163 la_data_in[25]
*164 la_data_in[26]
*165 la_data_in[27]
*166 la_data_in[28]
*167 la_data_in[29]
*168 la_data_in[2]
*169 la_data_in[30]
*170 la_data_in[31]
*171 la_data_in[32]
*172 la_data_in[33]
*173 la_data_in[34]
*174 la_data_in[35]
*175 la_data_in[36]
*176 la_data_in[37]
*177 la_data_in[38]
*178 la_data_in[39]
*179 la_data_in[3]
*180 la_data_in[40]
*181 la_data_in[41]
*182 la_data_in[42]
*183 la_data_in[43]
*184 la_data_in[44]
*185 la_data_in[45]
*186 la_data_in[46]
*187 la_data_in[47]
*188 la_data_in[48]
*189 la_data_in[49]
*190 la_data_in[4]
*191 la_data_in[50]
*192 la_data_in[51]
*193 la_data_in[52]
*194 la_data_in[53]
*195 la_data_in[54]
*196 la_data_in[55]
*197 la_data_in[56]
*198 la_data_in[57]
*199 la_data_in[58]
*200 la_data_in[59]
*201 la_data_in[5]
*202 la_data_in[60]
*203 la_data_in[61]
*204 la_data_in[62]
*205 la_data_in[63]
*206 la_data_in[64]
*207 la_data_in[65]
*208 la_data_in[66]
*209 la_data_in[67]
*210 la_data_in[68]
*211 la_data_in[69]
*212 la_data_in[6]
*213 la_data_in[70]
*214 la_data_in[71]
*215 la_data_in[72]
*216 la_data_in[73]
*217 la_data_in[74]
*218 la_data_in[75]
*219 la_data_in[76]
*220 la_data_in[77]
*221 la_data_in[78]
*222 la_data_in[79]
*223 la_data_in[7]
*224 la_data_in[80]
*225 la_data_in[81]
*226 la_data_in[82]
*227 la_data_in[83]
*228 la_data_in[84]
*229 la_data_in[85]
*230 la_data_in[86]
*231 la_data_in[87]
*232 la_data_in[88]
*233 la_data_in[89]
*234 la_data_in[8]
*235 la_data_in[90]
*236 la_data_in[91]
*237 la_data_in[92]
*238 la_data_in[93]
*239 la_data_in[94]
*240 la_data_in[95]
*241 la_data_in[96]
*242 la_data_in[97]
*243 la_data_in[98]
*244 la_data_in[99]
*245 la_data_in[9]
*246 net83
*247 net183
*248 net184
*249 net185
*250 net186
*251 net187
*252 net188
*253 net189
*254 net190
*255 net191
*256 net192
*257 net93
*258 net193
*259 net194
*260 net195
*261 net196
*262 net197
*263 net198
*264 net199
*265 net200
*266 net201
*267 net202
*268 net94
*269 net203
*270 net204
*271 net205
*272 net206
*273 net207
*274 net208
*275 net209
*276 net210
*277 net95
*278 net96
*279 net97
*280 net98
*281 net99
*282 net100
*283 net101
*284 net102
*285 net84
*286 net103
*287 net104
*288 net105
*289 net106
*290 net107
*291 net108
*292 net109
*293 net110
*294 net111
*295 net112
*296 net85
*297 net113
*298 net114
*299 net115
*300 net116
*301 net117
*302 net118
*303 net119
*304 net120
*305 net121
*306 net122
*307 net86
*308 net123
*309 net124
*310 net125
*311 net126
*312 net127
*313 net128
*314 net129
*315 net130
*316 net131
*317 net132
*318 net87
*319 net133
*320 net134
*321 net135
*322 net136
*323 net137
*324 net138
*325 net139
*326 net140
*327 net141
*328 net142
*329 net88
*330 net143
*331 net144
*332 net145
*333 net146
*334 net147
*335 net148
*336 net149
*337 net150
*338 net151
*339 net152
*340 net89
*341 net153
*342 net154
*343 net155
*344 net156
*345 net157
*346 net158
*347 net159
*348 net160
*349 net161
*350 net162
*351 net90
*352 net163
*353 net164
*354 net165
*355 net166
*356 net167
*357 net168
*358 net169
*359 net170
*360 net171
*361 net172
*362 net91
*363 net173
*364 net174
*365 net175
*366 net176
*367 net177
*368 net178
*369 net179
*370 net180
*371 net181
*372 net182
*373 net92
*374 la_oenb[0]
*375 la_oenb[100]
*376 la_oenb[101]
*377 la_oenb[102]
*378 la_oenb[103]
*379 la_oenb[104]
*380 la_oenb[105]
*381 la_oenb[106]
*382 la_oenb[107]
*383 la_oenb[108]
*384 la_oenb[109]
*385 la_oenb[10]
*386 la_oenb[110]
*387 la_oenb[111]
*388 la_oenb[112]
*389 la_oenb[113]
*390 la_oenb[114]
*391 la_oenb[115]
*392 la_oenb[116]
*393 la_oenb[117]
*394 la_oenb[118]
*395 la_oenb[119]
*396 la_oenb[11]
*397 la_oenb[120]
*398 la_oenb[121]
*399 la_oenb[122]
*400 la_oenb[123]
*401 la_oenb[124]
*402 la_oenb[125]
*403 la_oenb[126]
*404 la_oenb[127]
*405 la_oenb[12]
*406 la_oenb[13]
*407 la_oenb[14]
*408 la_oenb[15]
*409 la_oenb[16]
*410 la_oenb[17]
*411 la_oenb[18]
*412 la_oenb[19]
*413 la_oenb[1]
*414 la_oenb[20]
*415 la_oenb[21]
*416 la_oenb[22]
*417 la_oenb[23]
*418 la_oenb[24]
*419 la_oenb[25]
*420 la_oenb[26]
*421 la_oenb[27]
*422 la_oenb[28]
*423 la_oenb[29]
*424 la_oenb[2]
*425 la_oenb[30]
*426 la_oenb[31]
*427 la_oenb[32]
*428 la_oenb[33]
*429 la_oenb[34]
*430 la_oenb[35]
*431 la_oenb[36]
*432 la_oenb[37]
*433 la_oenb[38]
*434 la_oenb[39]
*435 la_oenb[3]
*436 la_oenb[40]
*437 la_oenb[41]
*438 la_oenb[42]
*439 la_oenb[43]
*440 la_oenb[44]
*441 la_oenb[45]
*442 la_oenb[46]
*443 la_oenb[47]
*444 la_oenb[48]
*445 la_oenb[49]
*446 la_oenb[4]
*447 la_oenb[50]
*448 la_oenb[51]
*449 la_oenb[52]
*450 la_oenb[53]
*451 la_oenb[54]
*452 la_oenb[55]
*453 la_oenb[56]
*454 la_oenb[57]
*455 la_oenb[58]
*456 la_oenb[59]
*457 la_oenb[5]
*458 la_oenb[60]
*459 la_oenb[61]
*460 la_oenb[62]
*461 la_oenb[63]
*462 la_oenb[64]
*463 la_oenb[65]
*464 la_oenb[66]
*465 la_oenb[67]
*466 la_oenb[68]
*467 la_oenb[69]
*468 la_oenb[6]
*469 la_oenb[70]
*470 la_oenb[71]
*471 la_oenb[72]
*472 la_oenb[73]
*473 la_oenb[74]
*474 la_oenb[75]
*475 la_oenb[76]
*476 la_oenb[77]
*477 la_oenb[78]
*478 la_oenb[79]
*479 la_oenb[7]
*480 la_oenb[80]
*481 la_oenb[81]
*482 la_oenb[82]
*483 la_oenb[83]
*484 la_oenb[84]
*485 la_oenb[85]
*486 la_oenb[86]
*487 la_oenb[87]
*488 la_oenb[88]
*489 la_oenb[89]
*490 la_oenb[8]
*491 la_oenb[90]
*492 la_oenb[91]
*493 la_oenb[92]
*494 la_oenb[93]
*495 la_oenb[94]
*496 la_oenb[95]
*497 la_oenb[96]
*498 la_oenb[97]
*499 la_oenb[98]
*500 la_oenb[99]
*501 la_oenb[9]
*504 wb_clk_i
*505 wb_rst_i
*506 net211
*507 wbs_adr_i[0]
*508 wbs_adr_i[10]
*509 wbs_adr_i[11]
*510 wbs_adr_i[12]
*511 wbs_adr_i[13]
*512 wbs_adr_i[14]
*513 wbs_adr_i[15]
*514 wbs_adr_i[16]
*515 wbs_adr_i[17]
*516 wbs_adr_i[18]
*517 wbs_adr_i[19]
*518 wbs_adr_i[1]
*519 wbs_adr_i[20]
*520 wbs_adr_i[21]
*521 wbs_adr_i[22]
*522 wbs_adr_i[23]
*523 wbs_adr_i[24]
*524 wbs_adr_i[25]
*525 wbs_adr_i[26]
*526 wbs_adr_i[27]
*527 wbs_adr_i[28]
*528 wbs_adr_i[29]
*529 wbs_adr_i[2]
*530 wbs_adr_i[30]
*531 wbs_adr_i[31]
*532 wbs_adr_i[3]
*533 wbs_adr_i[4]
*534 wbs_adr_i[5]
*535 wbs_adr_i[6]
*536 wbs_adr_i[7]
*537 wbs_adr_i[8]
*538 wbs_adr_i[9]
*539 wbs_cyc_i
*540 wbs_dat_i[0]
*541 wbs_dat_i[10]
*542 wbs_dat_i[11]
*543 wbs_dat_i[12]
*544 wbs_dat_i[13]
*545 wbs_dat_i[14]
*546 wbs_dat_i[15]
*547 wbs_dat_i[16]
*548 wbs_dat_i[17]
*549 wbs_dat_i[18]
*550 wbs_dat_i[19]
*551 wbs_dat_i[1]
*552 wbs_dat_i[20]
*553 wbs_dat_i[21]
*554 wbs_dat_i[22]
*555 wbs_dat_i[23]
*556 wbs_dat_i[24]
*557 wbs_dat_i[25]
*558 wbs_dat_i[26]
*559 wbs_dat_i[27]
*560 wbs_dat_i[28]
*561 wbs_dat_i[29]
*562 wbs_dat_i[2]
*563 wbs_dat_i[30]
*564 wbs_dat_i[31]
*565 wbs_dat_i[3]
*566 wbs_dat_i[4]
*567 wbs_dat_i[5]
*568 wbs_dat_i[6]
*569 wbs_dat_i[7]
*570 wbs_dat_i[8]
*571 wbs_dat_i[9]
*572 net212
*573 net222
*574 net223
*575 net224
*576 net225
*577 net226
*578 net227
*579 net228
*580 net229
*581 net230
*582 net231
*583 net213
*584 net232
*585 net233
*586 net234
*587 net235
*588 net236
*589 net237
*590 net238
*591 net239
*592 net240
*593 net241
*594 net214
*595 net242
*596 net243
*597 net215
*598 net216
*599 net217
*600 net218
*601 net219
*602 net220
*603 net221
*604 wbs_sel_i[0]
*605 wbs_sel_i[1]
*606 wbs_sel_i[2]
*607 wbs_sel_i[3]
*608 wbs_stb_i
*609 wbs_we_i
*610 _000_
*611 _001_
*612 _002_
*613 _003_
*614 _004_
*615 _005_
*616 _006_
*617 net1
*618 net2
*619 net3
*620 net4
*621 uut\.current_state\[0\]
*622 uut\.current_state\[1\]
*623 uut\.current_state\[2\]
*624 uut\.next_state\[0\]
*625 uut\.next_state\[1\]
*626 uut\.next_state\[2\]
*627 ANTENNA__015__A
*628 ANTENNA__016__A
*629 ANTENNA__017__A
*630 ANTENNA_input1_A
*631 ANTENNA_input2_A
*632 ANTENNA_input3_A
*633 ANTENNA_output4_A
*634 FILLER_0_1002
*635 FILLER_0_1009
*636 FILLER_0_1014
*637 FILLER_0_1021
*638 FILLER_0_1025
*639 FILLER_0_1029
*640 FILLER_0_1035
*641 FILLER_0_1037
*642 FILLER_0_1042
*643 FILLER_0_1049
*644 FILLER_0_1056
*645 FILLER_0_1065
*646 FILLER_0_1070
*647 FILLER_0_1077
*648 FILLER_0_1084
*649 FILLER_0_109
*650 FILLER_0_1093
*651 FILLER_0_1098
*652 FILLER_0_1105
*653 FILLER_0_1112
*654 FILLER_0_1121
*655 FILLER_0_1126
*656 FILLER_0_113
*657 FILLER_0_1133
*658 FILLER_0_1140
*659 FILLER_0_1149
*660 FILLER_0_1154
*661 FILLER_0_1161
*662 FILLER_0_1168
*663 FILLER_0_1177
*664 FILLER_0_1182
*665 FILLER_0_1189
*666 FILLER_0_1196
*667 FILLER_0_1205
*668 FILLER_0_1210
*669 FILLER_0_1214
*670 FILLER_0_1218
*671 FILLER_0_1227
*672 FILLER_0_1231
*673 FILLER_0_1233
*674 FILLER_0_1238
*675 FILLER_0_1245
*676 FILLER_0_125
*677 FILLER_0_1254
*678 FILLER_0_1261
*679 FILLER_0_1266
*680 FILLER_0_1273
*681 FILLER_0_1277
*682 FILLER_0_1281
*683 FILLER_0_1287
*684 FILLER_0_1289
*685 FILLER_0_1294
*686 FILLER_0_1301
*687 FILLER_0_1308
*688 FILLER_0_1317
*689 FILLER_0_1322
*690 FILLER_0_1329
*691 FILLER_0_1336
*692 FILLER_0_1345
*693 FILLER_0_1350
*694 FILLER_0_1357
*695 FILLER_0_1364
*696 FILLER_0_137
*697 FILLER_0_1373
*698 FILLER_0_1378
*699 FILLER_0_1385
*700 FILLER_0_1392
*701 FILLER_0_1401
*702 FILLER_0_1406
*703 FILLER_0_141
*704 FILLER_0_1413
*705 FILLER_0_1420
*706 FILLER_0_1429
*707 FILLER_0_1434
*708 FILLER_0_1441
*709 FILLER_0_1448
*710 FILLER_0_1457
*711 FILLER_0_1462
*712 FILLER_0_1466
*713 FILLER_0_1470
*714 FILLER_0_1479
*715 FILLER_0_1483
*716 FILLER_0_1485
*717 FILLER_0_1490
*718 FILLER_0_1497
*719 FILLER_0_15
*720 FILLER_0_1506
*721 FILLER_0_1513
*722 FILLER_0_1518
*723 FILLER_0_1525
*724 FILLER_0_1529
*725 FILLER_0_153
*726 FILLER_0_1533
*727 FILLER_0_1539
*728 FILLER_0_1541
*729 FILLER_0_1546
*730 FILLER_0_1553
*731 FILLER_0_1560
*732 FILLER_0_1569
*733 FILLER_0_1574
*734 FILLER_0_1581
*735 FILLER_0_1588
*736 FILLER_0_1597
*737 FILLER_0_1602
*738 FILLER_0_1609
*739 FILLER_0_1616
*740 FILLER_0_1625
*741 FILLER_0_1630
*742 FILLER_0_1637
*743 FILLER_0_1644
*744 FILLER_0_165
*745 FILLER_0_1653
*746 FILLER_0_1658
*747 FILLER_0_1665
*748 FILLER_0_1672
*749 FILLER_0_1681
*750 FILLER_0_1686
*751 FILLER_0_169
*752 FILLER_0_1693
*753 FILLER_0_1700
*754 FILLER_0_1709
*755 FILLER_0_1714
*756 FILLER_0_1726
*757 FILLER_0_1734
*758 FILLER_0_1737
*759 FILLER_0_1749
*760 FILLER_0_1761
*761 FILLER_0_1765
*762 FILLER_0_1777
*763 FILLER_0_1789
*764 FILLER_0_1793
*765 FILLER_0_1805
*766 FILLER_0_181
*767 FILLER_0_1817
*768 FILLER_0_1821
*769 FILLER_0_1833
*770 FILLER_0_1845
*771 FILLER_0_1849
*772 FILLER_0_1861
*773 FILLER_0_1873
*774 FILLER_0_1877
*775 FILLER_0_1889
*776 FILLER_0_1901
*777 FILLER_0_1905
*778 FILLER_0_1917
*779 FILLER_0_193
*780 FILLER_0_197
*781 FILLER_0_209
*782 FILLER_0_221
*783 FILLER_0_225
*784 FILLER_0_233
*785 FILLER_0_237
*786 FILLER_0_249
*787 FILLER_0_253
*788 FILLER_0_258
*789 FILLER_0_267
*790 FILLER_0_27
*791 FILLER_0_278
*792 FILLER_0_281
*793 FILLER_0_287
*794 FILLER_0_29
*795 FILLER_0_291
*796 FILLER_0_299
*797 FILLER_0_3
*798 FILLER_0_303
*799 FILLER_0_307
*800 FILLER_0_309
*801 FILLER_0_320
*802 FILLER_0_327
*803 FILLER_0_334
*804 FILLER_0_337
*805 FILLER_0_348
*806 FILLER_0_355
*807 FILLER_0_362
*808 FILLER_0_365
*809 FILLER_0_371
*810 FILLER_0_375
*811 FILLER_0_379
*812 FILLER_0_383
*813 FILLER_0_390
*814 FILLER_0_393
*815 FILLER_0_402
*816 FILLER_0_41
*817 FILLER_0_411
*818 FILLER_0_418
*819 FILLER_0_421
*820 FILLER_0_425
*821 FILLER_0_429
*822 FILLER_0_438
*823 FILLER_0_442
*824 FILLER_0_446
*825 FILLER_0_449
*826 FILLER_0_456
*827 FILLER_0_465
*828 FILLER_0_474
*829 FILLER_0_477
*830 FILLER_0_483
*831 FILLER_0_492
*832 FILLER_0_501
*833 FILLER_0_505
*834 FILLER_0_510
*835 FILLER_0_519
*836 FILLER_0_528
*837 FILLER_0_53
*838 FILLER_0_533
*839 FILLER_0_544
*840 FILLER_0_551
*841 FILLER_0_558
*842 FILLER_0_561
*843 FILLER_0_57
*844 FILLER_0_570
*845 FILLER_0_579
*846 FILLER_0_586
*847 FILLER_0_589
*848 FILLER_0_593
*849 FILLER_0_597
*850 FILLER_0_606
*851 FILLER_0_610
*852 FILLER_0_614
*853 FILLER_0_617
*854 FILLER_0_624
*855 FILLER_0_633
*856 FILLER_0_642
*857 FILLER_0_645
*858 FILLER_0_651
*859 FILLER_0_660
*860 FILLER_0_669
*861 FILLER_0_673
*862 FILLER_0_678
*863 FILLER_0_687
*864 FILLER_0_69
*865 FILLER_0_696
*866 FILLER_0_701
*867 FILLER_0_712
*868 FILLER_0_719
*869 FILLER_0_726
*870 FILLER_0_729
*871 FILLER_0_740
*872 FILLER_0_747
*873 FILLER_0_754
*874 FILLER_0_757
*875 FILLER_0_768
*876 FILLER_0_775
*877 FILLER_0_782
*878 FILLER_0_785
*879 FILLER_0_791
*880 FILLER_0_795
*881 FILLER_0_799
*882 FILLER_0_803
*883 FILLER_0_81
*884 FILLER_0_810
*885 FILLER_0_813
*886 FILLER_0_822
*887 FILLER_0_831
*888 FILLER_0_838
*889 FILLER_0_841
*890 FILLER_0_845
*891 FILLER_0_849
*892 FILLER_0_85
*893 FILLER_0_858
*894 FILLER_0_862
*895 FILLER_0_866
*896 FILLER_0_869
*897 FILLER_0_876
*898 FILLER_0_885
*899 FILLER_0_894
*900 FILLER_0_897
*901 FILLER_0_903
*902 FILLER_0_912
*903 FILLER_0_921
*904 FILLER_0_925
*905 FILLER_0_930
*906 FILLER_0_939
*907 FILLER_0_948
*908 FILLER_0_953
*909 FILLER_0_958
*910 FILLER_0_962
*911 FILLER_0_966
*912 FILLER_0_97
*913 FILLER_0_975
*914 FILLER_0_979
*915 FILLER_0_981
*916 FILLER_0_986
*917 FILLER_0_993
*918 FILLER_100_1005
*919 FILLER_100_1017
*920 FILLER_100_1029
*921 FILLER_100_1035
*922 FILLER_100_1037
*923 FILLER_100_1049
*924 FILLER_100_1061
*925 FILLER_100_1073
*926 FILLER_100_1085
*927 FILLER_100_109
*928 FILLER_100_1091
*929 FILLER_100_1093
*930 FILLER_100_1105
*931 FILLER_100_1117
*932 FILLER_100_1129
*933 FILLER_100_1141
*934 FILLER_100_1147
*935 FILLER_100_1149
*936 FILLER_100_1161
*937 FILLER_100_1173
*938 FILLER_100_1185
*939 FILLER_100_1197
*940 FILLER_100_1203
*941 FILLER_100_1205
*942 FILLER_100_121
*943 FILLER_100_1217
*944 FILLER_100_1229
*945 FILLER_100_1241
*946 FILLER_100_1253
*947 FILLER_100_1259
*948 FILLER_100_1261
*949 FILLER_100_1273
*950 FILLER_100_1285
*951 FILLER_100_1297
*952 FILLER_100_1309
*953 FILLER_100_1315
*954 FILLER_100_1317
*955 FILLER_100_1329
*956 FILLER_100_133
*957 FILLER_100_1341
*958 FILLER_100_1353
*959 FILLER_100_1365
*960 FILLER_100_1371
*961 FILLER_100_1373
*962 FILLER_100_1385
*963 FILLER_100_139
*964 FILLER_100_1397
*965 FILLER_100_1409
*966 FILLER_100_141
*967 FILLER_100_1421
*968 FILLER_100_1427
*969 FILLER_100_1429
*970 FILLER_100_1441
*971 FILLER_100_1453
*972 FILLER_100_1465
*973 FILLER_100_1477
*974 FILLER_100_1483
*975 FILLER_100_1485
*976 FILLER_100_1497
*977 FILLER_100_15
*978 FILLER_100_1509
*979 FILLER_100_1521
*980 FILLER_100_153
*981 FILLER_100_1533
*982 FILLER_100_1539
*983 FILLER_100_1541
*984 FILLER_100_1553
*985 FILLER_100_1565
*986 FILLER_100_1577
*987 FILLER_100_1589
*988 FILLER_100_1595
*989 FILLER_100_1597
*990 FILLER_100_1609
*991 FILLER_100_1621
*992 FILLER_100_1633
*993 FILLER_100_1645
*994 FILLER_100_165
*995 FILLER_100_1651
*996 FILLER_100_1653
*997 FILLER_100_1665
*998 FILLER_100_1677
*999 FILLER_100_1689
*1000 FILLER_100_1701
*1001 FILLER_100_1707
*1002 FILLER_100_1709
*1003 FILLER_100_1721
*1004 FILLER_100_1733
*1005 FILLER_100_1745
*1006 FILLER_100_1757
*1007 FILLER_100_1763
*1008 FILLER_100_1765
*1009 FILLER_100_177
*1010 FILLER_100_1777
*1011 FILLER_100_1789
*1012 FILLER_100_1801
*1013 FILLER_100_1813
*1014 FILLER_100_1819
*1015 FILLER_100_1821
*1016 FILLER_100_1833
*1017 FILLER_100_1845
*1018 FILLER_100_1857
*1019 FILLER_100_1869
*1020 FILLER_100_1875
*1021 FILLER_100_1877
*1022 FILLER_100_1889
*1023 FILLER_100_189
*1024 FILLER_100_1901
*1025 FILLER_100_1913
*1026 FILLER_100_1925
*1027 FILLER_100_195
*1028 FILLER_100_197
*1029 FILLER_100_209
*1030 FILLER_100_221
*1031 FILLER_100_233
*1032 FILLER_100_245
*1033 FILLER_100_251
*1034 FILLER_100_253
*1035 FILLER_100_265
*1036 FILLER_100_27
*1037 FILLER_100_277
*1038 FILLER_100_289
*1039 FILLER_100_29
*1040 FILLER_100_3
*1041 FILLER_100_301
*1042 FILLER_100_307
*1043 FILLER_100_309
*1044 FILLER_100_321
*1045 FILLER_100_333
*1046 FILLER_100_345
*1047 FILLER_100_357
*1048 FILLER_100_363
*1049 FILLER_100_365
*1050 FILLER_100_377
*1051 FILLER_100_389
*1052 FILLER_100_401
*1053 FILLER_100_41
*1054 FILLER_100_413
*1055 FILLER_100_419
*1056 FILLER_100_421
*1057 FILLER_100_433
*1058 FILLER_100_445
*1059 FILLER_100_457
*1060 FILLER_100_469
*1061 FILLER_100_475
*1062 FILLER_100_477
*1063 FILLER_100_489
*1064 FILLER_100_501
*1065 FILLER_100_513
*1066 FILLER_100_525
*1067 FILLER_100_53
*1068 FILLER_100_531
*1069 FILLER_100_533
*1070 FILLER_100_545
*1071 FILLER_100_557
*1072 FILLER_100_569
*1073 FILLER_100_581
*1074 FILLER_100_587
*1075 FILLER_100_589
*1076 FILLER_100_601
*1077 FILLER_100_613
*1078 FILLER_100_625
*1079 FILLER_100_637
*1080 FILLER_100_643
*1081 FILLER_100_645
*1082 FILLER_100_65
*1083 FILLER_100_657
*1084 FILLER_100_669
*1085 FILLER_100_681
*1086 FILLER_100_693
*1087 FILLER_100_699
*1088 FILLER_100_701
*1089 FILLER_100_713
*1090 FILLER_100_725
*1091 FILLER_100_737
*1092 FILLER_100_749
*1093 FILLER_100_755
*1094 FILLER_100_757
*1095 FILLER_100_769
*1096 FILLER_100_77
*1097 FILLER_100_781
*1098 FILLER_100_793
*1099 FILLER_100_805
*1100 FILLER_100_811
*1101 FILLER_100_813
*1102 FILLER_100_825
*1103 FILLER_100_83
*1104 FILLER_100_837
*1105 FILLER_100_849
*1106 FILLER_100_85
*1107 FILLER_100_861
*1108 FILLER_100_867
*1109 FILLER_100_869
*1110 FILLER_100_881
*1111 FILLER_100_893
*1112 FILLER_100_905
*1113 FILLER_100_917
*1114 FILLER_100_923
*1115 FILLER_100_925
*1116 FILLER_100_937
*1117 FILLER_100_949
*1118 FILLER_100_961
*1119 FILLER_100_97
*1120 FILLER_100_973
*1121 FILLER_100_979
*1122 FILLER_100_981
*1123 FILLER_100_993
*1124 FILLER_101_1001
*1125 FILLER_101_1007
*1126 FILLER_101_1009
*1127 FILLER_101_1021
*1128 FILLER_101_1033
*1129 FILLER_101_1045
*1130 FILLER_101_105
*1131 FILLER_101_1057
*1132 FILLER_101_1063
*1133 FILLER_101_1065
*1134 FILLER_101_1077
*1135 FILLER_101_1089
*1136 FILLER_101_1101
*1137 FILLER_101_111
*1138 FILLER_101_1113
*1139 FILLER_101_1119
*1140 FILLER_101_1121
*1141 FILLER_101_113
*1142 FILLER_101_1133
*1143 FILLER_101_1145
*1144 FILLER_101_1157
*1145 FILLER_101_1169
*1146 FILLER_101_1175
*1147 FILLER_101_1177
*1148 FILLER_101_1189
*1149 FILLER_101_1201
*1150 FILLER_101_1213
*1151 FILLER_101_1225
*1152 FILLER_101_1231
*1153 FILLER_101_1233
*1154 FILLER_101_1245
*1155 FILLER_101_125
*1156 FILLER_101_1257
*1157 FILLER_101_1269
*1158 FILLER_101_1281
*1159 FILLER_101_1287
*1160 FILLER_101_1289
*1161 FILLER_101_1301
*1162 FILLER_101_1313
*1163 FILLER_101_1325
*1164 FILLER_101_1337
*1165 FILLER_101_1343
*1166 FILLER_101_1345
*1167 FILLER_101_1357
*1168 FILLER_101_1369
*1169 FILLER_101_137
*1170 FILLER_101_1381
*1171 FILLER_101_1393
*1172 FILLER_101_1399
*1173 FILLER_101_1401
*1174 FILLER_101_1413
*1175 FILLER_101_1425
*1176 FILLER_101_1437
*1177 FILLER_101_1449
*1178 FILLER_101_1455
*1179 FILLER_101_1457
*1180 FILLER_101_1469
*1181 FILLER_101_1481
*1182 FILLER_101_149
*1183 FILLER_101_1493
*1184 FILLER_101_15
*1185 FILLER_101_1505
*1186 FILLER_101_1511
*1187 FILLER_101_1513
*1188 FILLER_101_1525
*1189 FILLER_101_1537
*1190 FILLER_101_1549
*1191 FILLER_101_1561
*1192 FILLER_101_1567
*1193 FILLER_101_1569
*1194 FILLER_101_1581
*1195 FILLER_101_1593
*1196 FILLER_101_1605
*1197 FILLER_101_161
*1198 FILLER_101_1617
*1199 FILLER_101_1623
*1200 FILLER_101_1625
*1201 FILLER_101_1637
*1202 FILLER_101_1649
*1203 FILLER_101_1661
*1204 FILLER_101_167
*1205 FILLER_101_1673
*1206 FILLER_101_1679
*1207 FILLER_101_1681
*1208 FILLER_101_169
*1209 FILLER_101_1693
*1210 FILLER_101_1705
*1211 FILLER_101_1717
*1212 FILLER_101_1729
*1213 FILLER_101_1735
*1214 FILLER_101_1737
*1215 FILLER_101_1749
*1216 FILLER_101_1761
*1217 FILLER_101_1773
*1218 FILLER_101_1785
*1219 FILLER_101_1791
*1220 FILLER_101_1793
*1221 FILLER_101_1805
*1222 FILLER_101_181
*1223 FILLER_101_1817
*1224 FILLER_101_1829
*1225 FILLER_101_1841
*1226 FILLER_101_1847
*1227 FILLER_101_1849
*1228 FILLER_101_1861
*1229 FILLER_101_1873
*1230 FILLER_101_1885
*1231 FILLER_101_1897
*1232 FILLER_101_1903
*1233 FILLER_101_1905
*1234 FILLER_101_1917
*1235 FILLER_101_193
*1236 FILLER_101_205
*1237 FILLER_101_217
*1238 FILLER_101_223
*1239 FILLER_101_225
*1240 FILLER_101_237
*1241 FILLER_101_249
*1242 FILLER_101_261
*1243 FILLER_101_27
*1244 FILLER_101_273
*1245 FILLER_101_279
*1246 FILLER_101_281
*1247 FILLER_101_293
*1248 FILLER_101_3
*1249 FILLER_101_305
*1250 FILLER_101_317
*1251 FILLER_101_329
*1252 FILLER_101_335
*1253 FILLER_101_337
*1254 FILLER_101_349
*1255 FILLER_101_361
*1256 FILLER_101_373
*1257 FILLER_101_385
*1258 FILLER_101_39
*1259 FILLER_101_391
*1260 FILLER_101_393
*1261 FILLER_101_405
*1262 FILLER_101_417
*1263 FILLER_101_429
*1264 FILLER_101_441
*1265 FILLER_101_447
*1266 FILLER_101_449
*1267 FILLER_101_461
*1268 FILLER_101_473
*1269 FILLER_101_485
*1270 FILLER_101_497
*1271 FILLER_101_503
*1272 FILLER_101_505
*1273 FILLER_101_51
*1274 FILLER_101_517
*1275 FILLER_101_529
*1276 FILLER_101_541
*1277 FILLER_101_55
*1278 FILLER_101_553
*1279 FILLER_101_559
*1280 FILLER_101_561
*1281 FILLER_101_57
*1282 FILLER_101_573
*1283 FILLER_101_585
*1284 FILLER_101_597
*1285 FILLER_101_609
*1286 FILLER_101_615
*1287 FILLER_101_617
*1288 FILLER_101_629
*1289 FILLER_101_641
*1290 FILLER_101_653
*1291 FILLER_101_665
*1292 FILLER_101_671
*1293 FILLER_101_673
*1294 FILLER_101_685
*1295 FILLER_101_69
*1296 FILLER_101_697
*1297 FILLER_101_709
*1298 FILLER_101_721
*1299 FILLER_101_727
*1300 FILLER_101_729
*1301 FILLER_101_741
*1302 FILLER_101_753
*1303 FILLER_101_765
*1304 FILLER_101_777
*1305 FILLER_101_783
*1306 FILLER_101_785
*1307 FILLER_101_797
*1308 FILLER_101_809
*1309 FILLER_101_81
*1310 FILLER_101_821
*1311 FILLER_101_833
*1312 FILLER_101_839
*1313 FILLER_101_841
*1314 FILLER_101_853
*1315 FILLER_101_865
*1316 FILLER_101_877
*1317 FILLER_101_889
*1318 FILLER_101_895
*1319 FILLER_101_897
*1320 FILLER_101_909
*1321 FILLER_101_921
*1322 FILLER_101_93
*1323 FILLER_101_933
*1324 FILLER_101_945
*1325 FILLER_101_951
*1326 FILLER_101_953
*1327 FILLER_101_965
*1328 FILLER_101_977
*1329 FILLER_101_989
*1330 FILLER_102_1005
*1331 FILLER_102_1017
*1332 FILLER_102_1029
*1333 FILLER_102_1035
*1334 FILLER_102_1037
*1335 FILLER_102_1049
*1336 FILLER_102_1061
*1337 FILLER_102_1073
*1338 FILLER_102_1085
*1339 FILLER_102_109
*1340 FILLER_102_1091
*1341 FILLER_102_1093
*1342 FILLER_102_1105
*1343 FILLER_102_1117
*1344 FILLER_102_1129
*1345 FILLER_102_1141
*1346 FILLER_102_1147
*1347 FILLER_102_1149
*1348 FILLER_102_1161
*1349 FILLER_102_1173
*1350 FILLER_102_1185
*1351 FILLER_102_1197
*1352 FILLER_102_1203
*1353 FILLER_102_1205
*1354 FILLER_102_121
*1355 FILLER_102_1217
*1356 FILLER_102_1229
*1357 FILLER_102_1241
*1358 FILLER_102_1253
*1359 FILLER_102_1259
*1360 FILLER_102_1261
*1361 FILLER_102_1273
*1362 FILLER_102_1285
*1363 FILLER_102_1297
*1364 FILLER_102_1309
*1365 FILLER_102_1315
*1366 FILLER_102_1317
*1367 FILLER_102_1329
*1368 FILLER_102_133
*1369 FILLER_102_1341
*1370 FILLER_102_1353
*1371 FILLER_102_1365
*1372 FILLER_102_1371
*1373 FILLER_102_1373
*1374 FILLER_102_1385
*1375 FILLER_102_139
*1376 FILLER_102_1397
*1377 FILLER_102_1409
*1378 FILLER_102_141
*1379 FILLER_102_1421
*1380 FILLER_102_1427
*1381 FILLER_102_1429
*1382 FILLER_102_1441
*1383 FILLER_102_1453
*1384 FILLER_102_1465
*1385 FILLER_102_1477
*1386 FILLER_102_1483
*1387 FILLER_102_1485
*1388 FILLER_102_1497
*1389 FILLER_102_15
*1390 FILLER_102_1509
*1391 FILLER_102_1521
*1392 FILLER_102_153
*1393 FILLER_102_1533
*1394 FILLER_102_1539
*1395 FILLER_102_1541
*1396 FILLER_102_1553
*1397 FILLER_102_1565
*1398 FILLER_102_1577
*1399 FILLER_102_1589
*1400 FILLER_102_1595
*1401 FILLER_102_1597
*1402 FILLER_102_1609
*1403 FILLER_102_1621
*1404 FILLER_102_1633
*1405 FILLER_102_1645
*1406 FILLER_102_165
*1407 FILLER_102_1651
*1408 FILLER_102_1653
*1409 FILLER_102_1665
*1410 FILLER_102_1677
*1411 FILLER_102_1689
*1412 FILLER_102_1701
*1413 FILLER_102_1707
*1414 FILLER_102_1709
*1415 FILLER_102_1721
*1416 FILLER_102_1733
*1417 FILLER_102_1745
*1418 FILLER_102_1757
*1419 FILLER_102_1763
*1420 FILLER_102_1765
*1421 FILLER_102_177
*1422 FILLER_102_1777
*1423 FILLER_102_1789
*1424 FILLER_102_1801
*1425 FILLER_102_1813
*1426 FILLER_102_1819
*1427 FILLER_102_1821
*1428 FILLER_102_1833
*1429 FILLER_102_1845
*1430 FILLER_102_1857
*1431 FILLER_102_1869
*1432 FILLER_102_1875
*1433 FILLER_102_1877
*1434 FILLER_102_1889
*1435 FILLER_102_189
*1436 FILLER_102_1901
*1437 FILLER_102_1913
*1438 FILLER_102_1925
*1439 FILLER_102_195
*1440 FILLER_102_197
*1441 FILLER_102_209
*1442 FILLER_102_221
*1443 FILLER_102_233
*1444 FILLER_102_245
*1445 FILLER_102_251
*1446 FILLER_102_253
*1447 FILLER_102_265
*1448 FILLER_102_27
*1449 FILLER_102_277
*1450 FILLER_102_289
*1451 FILLER_102_29
*1452 FILLER_102_3
*1453 FILLER_102_301
*1454 FILLER_102_307
*1455 FILLER_102_309
*1456 FILLER_102_321
*1457 FILLER_102_333
*1458 FILLER_102_345
*1459 FILLER_102_357
*1460 FILLER_102_363
*1461 FILLER_102_365
*1462 FILLER_102_377
*1463 FILLER_102_389
*1464 FILLER_102_401
*1465 FILLER_102_41
*1466 FILLER_102_413
*1467 FILLER_102_419
*1468 FILLER_102_421
*1469 FILLER_102_433
*1470 FILLER_102_445
*1471 FILLER_102_457
*1472 FILLER_102_469
*1473 FILLER_102_475
*1474 FILLER_102_477
*1475 FILLER_102_489
*1476 FILLER_102_501
*1477 FILLER_102_513
*1478 FILLER_102_525
*1479 FILLER_102_53
*1480 FILLER_102_531
*1481 FILLER_102_533
*1482 FILLER_102_545
*1483 FILLER_102_557
*1484 FILLER_102_569
*1485 FILLER_102_581
*1486 FILLER_102_587
*1487 FILLER_102_589
*1488 FILLER_102_601
*1489 FILLER_102_613
*1490 FILLER_102_625
*1491 FILLER_102_637
*1492 FILLER_102_643
*1493 FILLER_102_645
*1494 FILLER_102_65
*1495 FILLER_102_657
*1496 FILLER_102_669
*1497 FILLER_102_681
*1498 FILLER_102_693
*1499 FILLER_102_699
*1500 FILLER_102_701
*1501 FILLER_102_713
*1502 FILLER_102_725
*1503 FILLER_102_737
*1504 FILLER_102_749
*1505 FILLER_102_755
*1506 FILLER_102_757
*1507 FILLER_102_769
*1508 FILLER_102_77
*1509 FILLER_102_781
*1510 FILLER_102_793
*1511 FILLER_102_805
*1512 FILLER_102_811
*1513 FILLER_102_813
*1514 FILLER_102_825
*1515 FILLER_102_83
*1516 FILLER_102_837
*1517 FILLER_102_849
*1518 FILLER_102_85
*1519 FILLER_102_861
*1520 FILLER_102_867
*1521 FILLER_102_869
*1522 FILLER_102_881
*1523 FILLER_102_893
*1524 FILLER_102_905
*1525 FILLER_102_917
*1526 FILLER_102_923
*1527 FILLER_102_925
*1528 FILLER_102_937
*1529 FILLER_102_949
*1530 FILLER_102_961
*1531 FILLER_102_97
*1532 FILLER_102_973
*1533 FILLER_102_979
*1534 FILLER_102_981
*1535 FILLER_102_993
*1536 FILLER_103_1001
*1537 FILLER_103_1007
*1538 FILLER_103_1009
*1539 FILLER_103_1021
*1540 FILLER_103_1033
*1541 FILLER_103_1045
*1542 FILLER_103_105
*1543 FILLER_103_1057
*1544 FILLER_103_1063
*1545 FILLER_103_1065
*1546 FILLER_103_1077
*1547 FILLER_103_1089
*1548 FILLER_103_1101
*1549 FILLER_103_111
*1550 FILLER_103_1113
*1551 FILLER_103_1119
*1552 FILLER_103_1121
*1553 FILLER_103_113
*1554 FILLER_103_1133
*1555 FILLER_103_1145
*1556 FILLER_103_1157
*1557 FILLER_103_1169
*1558 FILLER_103_1175
*1559 FILLER_103_1177
*1560 FILLER_103_1189
*1561 FILLER_103_1201
*1562 FILLER_103_1213
*1563 FILLER_103_1225
*1564 FILLER_103_1231
*1565 FILLER_103_1233
*1566 FILLER_103_1245
*1567 FILLER_103_125
*1568 FILLER_103_1257
*1569 FILLER_103_1269
*1570 FILLER_103_1281
*1571 FILLER_103_1287
*1572 FILLER_103_1289
*1573 FILLER_103_1301
*1574 FILLER_103_1313
*1575 FILLER_103_1325
*1576 FILLER_103_1337
*1577 FILLER_103_1343
*1578 FILLER_103_1345
*1579 FILLER_103_1357
*1580 FILLER_103_1369
*1581 FILLER_103_137
*1582 FILLER_103_1381
*1583 FILLER_103_1393
*1584 FILLER_103_1399
*1585 FILLER_103_1401
*1586 FILLER_103_1413
*1587 FILLER_103_1425
*1588 FILLER_103_1437
*1589 FILLER_103_1449
*1590 FILLER_103_1455
*1591 FILLER_103_1457
*1592 FILLER_103_1469
*1593 FILLER_103_1481
*1594 FILLER_103_149
*1595 FILLER_103_1493
*1596 FILLER_103_15
*1597 FILLER_103_1505
*1598 FILLER_103_1511
*1599 FILLER_103_1513
*1600 FILLER_103_1525
*1601 FILLER_103_1537
*1602 FILLER_103_1549
*1603 FILLER_103_1561
*1604 FILLER_103_1567